<?xml version="1.0" encoding="UTF-8"?>

<!-- generated on 2025-09-15 00:49:53 by Eclipse SUMO netconvert Version 1.24.0
<netconvertConfiguration xmlns:xsi="http://www.w3.org/2001/XMLSchema-instance" xsi:noNamespaceSchemaLocation="http://sumo.dlr.de/xsd/netconvertConfiguration.xsd">

    <input>
        <node-files value="nodes.xml"/>
        <edge-files value="edges.xml"/>
    </input>

    <output>
        <output-file value="output.net.xml"/>
    </output>

</netconvertConfiguration>
-->

<net version="1.20" junctionCornerDetail="5" limitTurnSpeed="5.50" xmlns:xsi="http://www.w3.org/2001/XMLSchema-instance" xsi:noNamespaceSchemaLocation="http://sumo.dlr.de/xsd/net_file.xsd">

    <location netOffset="20.00,0.00" convBoundary="0.00,0.00,220.00,220.00" origBoundary="-20.00,0.00,200.00,220.00" projParameter="!"/>

    <edge id=":A_0" function="internal">
        <lane id=":A_0_0" index="0" speed="8.00" length="14.19" shape="18.40,7.20 18.95,3.35 20.60,0.60 23.35,-1.05 27.20,-1.60"/>
    </edge>
    <edge id=":A_1" function="internal">
        <lane id=":A_1_0" index="0" speed="3.65" length="1.44" shape="18.40,7.20 19.20,6.00"/>
    </edge>
    <edge id=":A_6" function="internal">
        <lane id=":A_6_0" index="0" speed="3.65" length="3.23" shape="19.20,6.00 20.00,5.60 20.80,6.00 21.60,7.20"/>
    </edge>
    <edge id=":A_2" function="internal">
        <lane id=":A_2_0" index="0" speed="6.51" length="9.03" shape="27.20,1.60 24.75,1.95 23.00,3.00 21.95,4.75 21.60,7.20"/>
    </edge>
    <edge id=":A_3" function="internal">
        <lane id=":A_3_0" index="0" speed="3.65" length="1.30" shape="27.20,1.60 26.12,0.88"/>
    </edge>
    <edge id=":A_7" function="internal">
        <lane id=":A_7_0" index="0" speed="3.65" length="3.37" shape="26.12,0.88 26.00,0.80 25.60,0.00 26.00,-0.80 27.20,-1.60"/>
    </edge>
    <edge id=":A_4" function="internal">
        <lane id=":A_4_0" index="0" speed="9.45" length="14.40" shape="12.80,-1.60 27.20,-1.60"/>
    </edge>
    <edge id=":A_5" function="internal">
        <lane id=":A_5_0" index="0" speed="8.00" length="14.19" shape="12.80,-1.60 16.65,-1.05 19.40,0.60 21.05,3.35 21.60,7.20"/>
    </edge>
    <edge id=":B_0" function="internal">
        <lane id=":B_0_0" index="0" speed="6.51" length="9.03" shape="118.40,7.20 118.05,4.75 117.00,3.00 115.25,1.95 112.80,1.60"/>
    </edge>
    <edge id=":B_1" function="internal">
        <lane id=":B_1_0" index="0" speed="8.00" length="14.19" shape="118.40,7.20 118.95,3.35 120.60,0.60 123.35,-1.05 127.20,-1.60"/>
    </edge>
    <edge id=":B_2" function="internal">
        <lane id=":B_2_0" index="0" speed="3.65" length="4.67" shape="118.40,7.20 119.20,6.00 120.00,5.60 120.80,6.00 121.60,7.20"/>
    </edge>
    <edge id=":B_3" function="internal">
        <lane id=":B_3_0" index="0" speed="6.51" length="9.03" shape="127.20,1.60 124.75,1.95 123.00,3.00 121.95,4.75 121.60,7.20"/>
    </edge>
    <edge id=":B_4" function="internal">
        <lane id=":B_4_0" index="0" speed="13.89" length="14.40" shape="127.20,1.60 112.80,1.60"/>
    </edge>
    <edge id=":B_5" function="internal">
        <lane id=":B_5_0" index="0" speed="3.65" length="1.44" shape="127.20,1.60 126.00,0.80"/>
    </edge>
    <edge id=":B_9" function="internal">
        <lane id=":B_9_0" index="0" speed="3.65" length="3.23" shape="126.00,0.80 125.60,0.00 126.00,-0.80 127.20,-1.60"/>
    </edge>
    <edge id=":B_6" function="internal">
        <lane id=":B_6_0" index="0" speed="13.89" length="14.40" shape="112.80,-1.60 127.20,-1.60"/>
    </edge>
    <edge id=":B_7" function="internal">
        <lane id=":B_7_0" index="0" speed="8.00" length="4.07" shape="112.80,-1.60 116.65,-1.05 116.80,-0.96"/>
    </edge>
    <edge id=":B_8" function="internal">
        <lane id=":B_8_0" index="0" speed="3.65" length="1.44" shape="112.80,-1.60 114.00,-0.80"/>
    </edge>
    <edge id=":B_10" function="internal">
        <lane id=":B_10_0" index="0" speed="8.00" length="10.13" shape="116.80,-0.96 119.40,0.60 121.05,3.35 121.60,7.20"/>
    </edge>
    <edge id=":B_11" function="internal">
        <lane id=":B_11_0" index="0" speed="3.65" length="3.23" shape="114.00,-0.80 114.40,0.00 114.00,0.80 112.80,1.60"/>
    </edge>
    <edge id=":C_0" function="internal">
        <lane id=":C_0_0" index="0" speed="3.90" length="2.58" shape="218.40,3.20 218.30,2.50 218.00,2.00 217.50,1.70 216.80,1.60"/>
    </edge>
    <edge id=":C_1" function="internal">
        <lane id=":C_1_0" index="0" speed="6.08" length="7.74" shape="216.80,-1.60 218.90,-1.30 220.40,-0.40 221.30,1.10 221.60,3.20"/>
    </edge>
    <edge id=":D_0" function="internal">
        <lane id=":D_0_0" index="0" speed="13.89" length="14.40" shape="18.40,107.20 18.40,92.80"/>
    </edge>
    <edge id=":D_1" function="internal">
        <lane id=":D_1_0" index="0" speed="8.00" length="4.07" shape="18.40,107.20 18.95,103.35 19.04,103.20"/>
    </edge>
    <edge id=":D_2" function="internal">
        <lane id=":D_2_0" index="0" speed="3.65" length="1.44" shape="18.40,107.20 19.20,106.00"/>
    </edge>
    <edge id=":D_12" function="internal">
        <lane id=":D_12_0" index="0" speed="8.00" length="10.13" shape="19.04,103.20 20.60,100.60 23.35,98.95 27.20,98.40"/>
    </edge>
    <edge id=":D_13" function="internal">
        <lane id=":D_13_0" index="0" speed="3.65" length="3.23" shape="19.20,106.00 20.00,105.60 20.80,106.00 21.60,107.20"/>
    </edge>
    <edge id=":D_3" function="internal">
        <lane id=":D_3_0" index="0" speed="6.51" length="9.03" shape="27.20,101.60 24.75,101.95 23.00,103.00 21.95,104.75 21.60,107.20"/>
    </edge>
    <edge id=":D_4" function="internal">
        <lane id=":D_4_0" index="0" speed="8.00" length="14.19" shape="27.20,101.60 23.35,101.05 20.60,99.40 18.95,96.65 18.40,92.80"/>
    </edge>
    <edge id=":D_5" function="internal">
        <lane id=":D_5_0" index="0" speed="3.65" length="4.67" shape="27.20,101.60 26.00,100.80 25.60,100.00 26.00,99.20 27.20,98.40"/>
    </edge>
    <edge id=":D_6" function="internal">
        <lane id=":D_6_0" index="0" speed="6.51" length="9.03" shape="21.60,92.80 21.95,95.25 23.00,97.00 24.75,98.05 27.20,98.40"/>
    </edge>
    <edge id=":D_7" function="internal">
        <lane id=":D_7_0" index="0" speed="13.89" length="14.40" shape="21.60,92.80 21.60,107.20"/>
    </edge>
    <edge id=":D_8" function="internal">
        <lane id=":D_8_0" index="0" speed="3.65" length="1.44" shape="21.60,92.80 20.80,94.00"/>
    </edge>
    <edge id=":D_14" function="internal">
        <lane id=":D_14_0" index="0" speed="3.65" length="3.23" shape="20.80,94.00 20.00,94.40 19.20,94.00 18.40,92.80"/>
    </edge>
    <edge id=":D_9" function="internal">
        <lane id=":D_9_0" index="0" speed="6.51" length="9.03" shape="12.80,98.40 15.25,98.05 17.00,97.00 18.05,95.25 18.40,92.80"/>
    </edge>
    <edge id=":D_10" function="internal">
        <lane id=":D_10_0" index="0" speed="9.45" length="14.40" shape="12.80,98.40 27.20,98.40"/>
    </edge>
    <edge id=":D_11" function="internal">
        <lane id=":D_11_0" index="0" speed="8.00" length="14.19" shape="12.80,98.40 16.65,98.95 19.40,100.60 21.05,103.35 21.60,107.20"/>
    </edge>
    <edge id=":E_0" function="internal">
        <lane id=":E_0_0" index="0" speed="6.51" length="9.03" shape="118.40,107.20 118.05,104.75 117.00,103.00 115.25,101.95 112.80,101.60"/>
    </edge>
    <edge id=":E_1" function="internal">
        <lane id=":E_1_0" index="0" speed="13.89" length="14.40" shape="118.40,107.20 118.40,92.80"/>
    </edge>
    <edge id=":E_2" function="internal">
        <lane id=":E_2_0" index="0" speed="8.00" length="4.07" shape="118.40,107.20 118.95,103.35 119.04,103.20"/>
    </edge>
    <edge id=":E_3" function="internal">
        <lane id=":E_3_0" index="0" speed="3.65" length="1.44" shape="118.40,107.20 119.20,106.00"/>
    </edge>
    <edge id=":E_16" function="internal">
        <lane id=":E_16_0" index="0" speed="8.00" length="10.13" shape="119.04,103.20 120.60,100.60 123.35,98.95 127.20,98.40"/>
    </edge>
    <edge id=":E_17" function="internal">
        <lane id=":E_17_0" index="0" speed="3.65" length="3.23" shape="119.20,106.00 120.00,105.60 120.80,106.00 121.60,107.20"/>
    </edge>
    <edge id=":E_4" function="internal">
        <lane id=":E_4_0" index="0" speed="6.51" length="9.03" shape="127.20,101.60 124.75,101.95 123.00,103.00 121.95,104.75 121.60,107.20"/>
    </edge>
    <edge id=":E_5" function="internal">
        <lane id=":E_5_0" index="0" speed="13.89" length="14.40" shape="127.20,101.60 112.80,101.60"/>
    </edge>
    <edge id=":E_6" function="internal">
        <lane id=":E_6_0" index="0" speed="8.00" length="14.19" shape="127.20,101.60 123.35,101.05 120.60,99.40 118.95,96.65 118.40,92.80"/>
    </edge>
    <edge id=":E_7" function="internal">
        <lane id=":E_7_0" index="0" speed="3.65" length="4.67" shape="127.20,101.60 126.00,100.80 125.60,100.00 126.00,99.20 127.20,98.40"/>
    </edge>
    <edge id=":E_8" function="internal">
        <lane id=":E_8_0" index="0" speed="6.51" length="9.03" shape="121.60,92.80 121.95,95.25 123.00,97.00 124.75,98.05 127.20,98.40"/>
    </edge>
    <edge id=":E_9" function="internal">
        <lane id=":E_9_0" index="0" speed="13.89" length="14.40" shape="121.60,92.80 121.60,107.20"/>
    </edge>
    <edge id=":E_10" function="internal">
        <lane id=":E_10_0" index="0" speed="8.00" length="4.07" shape="121.60,92.80 121.05,96.65 120.96,96.80"/>
    </edge>
    <edge id=":E_11" function="internal">
        <lane id=":E_11_0" index="0" speed="3.65" length="1.44" shape="121.60,92.80 120.80,94.00"/>
    </edge>
    <edge id=":E_18" function="internal">
        <lane id=":E_18_0" index="0" speed="8.00" length="10.13" shape="120.96,96.80 119.40,99.40 116.65,101.05 112.80,101.60"/>
    </edge>
    <edge id=":E_19" function="internal">
        <lane id=":E_19_0" index="0" speed="3.65" length="3.23" shape="120.80,94.00 120.00,94.40 119.20,94.00 118.40,92.80"/>
    </edge>
    <edge id=":E_12" function="internal">
        <lane id=":E_12_0" index="0" speed="6.51" length="9.03" shape="112.80,98.40 115.25,98.05 117.00,97.00 118.05,95.25 118.40,92.80"/>
    </edge>
    <edge id=":E_13" function="internal">
        <lane id=":E_13_0" index="0" speed="13.89" length="14.40" shape="112.80,98.40 127.20,98.40"/>
    </edge>
    <edge id=":E_14" function="internal">
        <lane id=":E_14_0" index="0" speed="8.00" length="14.19" shape="112.80,98.40 116.65,98.95 119.40,100.60 121.05,103.35 121.60,107.20"/>
    </edge>
    <edge id=":E_15" function="internal">
        <lane id=":E_15_0" index="0" speed="3.65" length="4.67" shape="112.80,98.40 114.00,99.20 114.40,100.00 114.00,100.80 112.80,101.60"/>
    </edge>
    <edge id=":F_0" function="internal">
        <lane id=":F_0_0" index="0" speed="6.51" length="9.03" shape="218.40,107.20 218.05,104.75 217.00,103.00 215.25,101.95 212.80,101.60"/>
    </edge>
    <edge id=":F_1" function="internal">
        <lane id=":F_1_0" index="0" speed="13.89" length="14.40" shape="218.40,107.20 218.40,92.80"/>
    </edge>
    <edge id=":F_2" function="internal">
        <lane id=":F_2_0" index="0" speed="3.65" length="1.44" shape="218.40,107.20 219.20,106.00"/>
    </edge>
    <edge id=":F_9" function="internal">
        <lane id=":F_9_0" index="0" speed="3.65" length="3.23" shape="219.20,106.00 220.00,105.60 220.80,106.00 221.60,107.20"/>
    </edge>
    <edge id=":F_3" function="internal">
        <lane id=":F_3_0" index="0" speed="13.89" length="14.40" shape="221.60,92.80 221.60,107.20"/>
    </edge>
    <edge id=":F_4" function="internal">
        <lane id=":F_4_0" index="0" speed="8.00" length="4.07" shape="221.60,92.80 221.05,96.65 220.96,96.80"/>
    </edge>
    <edge id=":F_5" function="internal">
        <lane id=":F_5_0" index="0" speed="3.65" length="1.44" shape="221.60,92.80 220.80,94.00"/>
    </edge>
    <edge id=":F_10" function="internal">
        <lane id=":F_10_0" index="0" speed="8.00" length="10.13" shape="220.96,96.80 219.40,99.40 216.65,101.05 212.80,101.60"/>
    </edge>
    <edge id=":F_11" function="internal">
        <lane id=":F_11_0" index="0" speed="3.65" length="3.23" shape="220.80,94.00 220.00,94.40 219.20,94.00 218.40,92.80"/>
    </edge>
    <edge id=":F_6" function="internal">
        <lane id=":F_6_0" index="0" speed="6.51" length="9.03" shape="212.80,98.40 215.25,98.05 217.00,97.00 218.05,95.25 218.40,92.80"/>
    </edge>
    <edge id=":F_7" function="internal">
        <lane id=":F_7_0" index="0" speed="8.00" length="14.19" shape="212.80,98.40 216.65,98.95 219.40,100.60 221.05,103.35 221.60,107.20"/>
    </edge>
    <edge id=":F_8" function="internal">
        <lane id=":F_8_0" index="0" speed="3.65" length="4.67" shape="212.80,98.40 214.00,99.20 214.40,100.00 214.00,100.80 212.80,101.60"/>
    </edge>
    <edge id=":G_0" function="internal">
        <lane id=":G_0_0" index="0" speed="6.08" length="7.74" shape="23.20,201.60 21.10,201.30 19.60,200.40 18.70,198.90 18.40,196.80"/>
    </edge>
    <edge id=":G_1" function="internal">
        <lane id=":G_1_0" index="0" speed="3.90" length="2.58" shape="21.60,196.80 21.70,197.50 22.00,198.00 22.50,198.30 23.20,198.40"/>
    </edge>
    <edge id=":H_0" function="internal">
        <lane id=":H_0_0" index="0" speed="6.51" length="9.03" shape="118.40,207.20 118.05,204.75 117.00,203.00 115.25,201.95 112.80,201.60"/>
    </edge>
    <edge id=":H_1" function="internal">
        <lane id=":H_1_0" index="0" speed="9.45" length="14.40" shape="118.40,207.20 118.40,192.80"/>
    </edge>
    <edge id=":H_2" function="internal">
        <lane id=":H_2_0" index="0" speed="8.00" length="14.19" shape="118.40,207.20 118.95,203.35 120.60,200.60 123.35,198.95 127.20,198.40"/>
    </edge>
    <edge id=":H_3" function="internal">
        <lane id=":H_3_0" index="0" speed="13.89" length="14.40" shape="127.20,201.60 112.80,201.60"/>
    </edge>
    <edge id=":H_4" function="internal">
        <lane id=":H_4_0" index="0" speed="8.00" length="4.07" shape="127.20,201.60 123.35,201.05 123.20,200.96"/>
    </edge>
    <edge id=":H_5" function="internal">
        <lane id=":H_5_0" index="0" speed="3.65" length="1.44" shape="127.20,201.60 126.00,200.80"/>
    </edge>
    <edge id=":H_12" function="internal">
        <lane id=":H_12_0" index="0" speed="8.00" length="10.13" shape="123.20,200.96 120.60,199.40 118.95,196.65 118.40,192.80"/>
    </edge>
    <edge id=":H_13" function="internal">
        <lane id=":H_13_0" index="0" speed="3.65" length="3.23" shape="126.00,200.80 125.60,200.00 126.00,199.20 127.20,198.40"/>
    </edge>
    <edge id=":H_6" function="internal">
        <lane id=":H_6_0" index="0" speed="6.51" length="9.03" shape="121.60,192.80 121.95,195.25 123.00,197.00 124.75,198.05 127.20,198.40"/>
    </edge>
    <edge id=":H_7" function="internal">
        <lane id=":H_7_0" index="0" speed="8.00" length="14.19" shape="121.60,192.80 121.05,196.65 119.40,199.40 116.65,201.05 112.80,201.60"/>
    </edge>
    <edge id=":H_8" function="internal">
        <lane id=":H_8_0" index="0" speed="3.65" length="4.67" shape="121.60,192.80 120.80,194.00 120.00,194.40 119.20,194.00 118.40,192.80"/>
    </edge>
    <edge id=":H_9" function="internal">
        <lane id=":H_9_0" index="0" speed="6.51" length="9.03" shape="112.80,198.40 115.25,198.05 117.00,197.00 118.05,195.25 118.40,192.80"/>
    </edge>
    <edge id=":H_10" function="internal">
        <lane id=":H_10_0" index="0" speed="13.89" length="14.40" shape="112.80,198.40 127.20,198.40"/>
    </edge>
    <edge id=":H_11" function="internal">
        <lane id=":H_11_0" index="0" speed="3.65" length="1.44" shape="112.80,198.40 114.00,199.20"/>
    </edge>
    <edge id=":H_14" function="internal">
        <lane id=":H_14_0" index="0" speed="3.65" length="3.23" shape="114.00,199.20 114.40,200.00 114.00,200.80 112.80,201.60"/>
    </edge>
    <edge id=":I_0" function="internal">
        <lane id=":I_0_0" index="0" speed="6.08" length="7.74" shape="221.60,196.80 221.30,198.90 220.40,200.40 218.90,201.30 216.80,201.60"/>
    </edge>
    <edge id=":I_1" function="internal">
        <lane id=":I_1_0" index="0" speed="3.90" length="2.58" shape="216.80,198.40 217.50,198.30 218.00,198.00 218.30,197.50 218.40,196.80"/>
    </edge>

    <edge id="A_B" from="A" to="B" priority="-1">
        <lane id="A_B_0" index="0" speed="13.89" length="85.60" shape="27.20,-1.60 112.80,-1.60"/>
    </edge>
    <edge id="A_B_parking" from="A_parking" to="A" priority="-1">
        <lane id="A_B_parking_0" index="0" speed="5.00" length="12.80" shape="0.00,-1.60 12.80,-1.60"/>
    </edge>
    <edge id="A_D" from="A" to="D" priority="-1">
        <lane id="A_D_0" index="0" speed="13.89" length="85.60" shape="21.60,7.20 21.60,92.80"/>
    </edge>
    <edge id="B_A" from="B" to="A" priority="-1">
        <lane id="B_A_0" index="0" speed="13.89" length="85.60" shape="112.80,1.60 27.20,1.60"/>
    </edge>
    <edge id="B_C" from="B" to="C" priority="-1">
        <lane id="B_C_0" index="0" speed="13.89" length="89.60" shape="127.20,-1.60 216.80,-1.60"/>
    </edge>
    <edge id="B_E" from="B" to="E" priority="-1">
        <lane id="B_E_0" index="0" speed="13.89" length="85.60" shape="121.60,7.20 121.60,92.80"/>
    </edge>
    <edge id="C_B" from="C" to="B" priority="-1">
        <lane id="C_B_0" index="0" speed="13.89" length="89.60" shape="216.80,1.60 127.20,1.60"/>
    </edge>
    <edge id="C_F" from="C" to="F" priority="-1">
        <lane id="C_F_0" index="0" speed="13.89" length="89.60" shape="221.60,3.20 221.60,92.80"/>
    </edge>
    <edge id="D_A" from="D" to="A" priority="-1">
        <lane id="D_A_0" index="0" speed="13.89" length="85.60" shape="18.40,92.80 18.40,7.20"/>
    </edge>
    <edge id="D_E" from="D" to="E" priority="-1">
        <lane id="D_E_0" index="0" speed="13.89" length="85.60" shape="27.20,98.40 112.80,98.40"/>
    </edge>
    <edge id="D_G" from="D" to="G" priority="-1">
        <lane id="D_G_0" index="0" speed="13.89" length="89.60" shape="21.60,107.20 21.60,196.80"/>
    </edge>
    <edge id="D_G_parking" from="D_parking" to="D" priority="-1">
        <lane id="D_G_parking_0" index="0" speed="5.00" length="12.80" shape="0.00,98.40 12.80,98.40"/>
    </edge>
    <edge id="E_B" from="E" to="B" priority="-1">
        <lane id="E_B_0" index="0" speed="13.89" length="85.60" shape="118.40,92.80 118.40,7.20"/>
    </edge>
    <edge id="E_D" from="E" to="D" priority="-1">
        <lane id="E_D_0" index="0" speed="13.89" length="85.60" shape="112.80,101.60 27.20,101.60"/>
    </edge>
    <edge id="E_F" from="E" to="F" priority="-1">
        <lane id="E_F_0" index="0" speed="13.89" length="85.60" shape="127.20,98.40 212.80,98.40"/>
    </edge>
    <edge id="E_H" from="E" to="H" priority="-1">
        <lane id="E_H_0" index="0" speed="13.89" length="85.60" shape="121.60,107.20 121.60,192.80"/>
    </edge>
    <edge id="F_C" from="F" to="C" priority="-1">
        <lane id="F_C_0" index="0" speed="13.89" length="89.60" shape="218.40,92.80 218.40,3.20"/>
    </edge>
    <edge id="F_E" from="F" to="E" priority="-1">
        <lane id="F_E_0" index="0" speed="13.89" length="85.60" shape="212.80,101.60 127.20,101.60"/>
    </edge>
    <edge id="F_I" from="F" to="I" priority="-1">
        <lane id="F_I_0" index="0" speed="13.89" length="89.60" shape="221.60,107.20 221.60,196.80"/>
    </edge>
    <edge id="G_D" from="G" to="D" priority="-1">
        <lane id="G_D_0" index="0" speed="13.89" length="89.60" shape="18.40,196.80 18.40,107.20"/>
    </edge>
    <edge id="G_H" from="G" to="H" priority="-1">
        <lane id="G_H_0" index="0" speed="13.89" length="89.60" shape="23.20,198.40 112.80,198.40"/>
    </edge>
    <edge id="H_E" from="H" to="E" priority="-1">
        <lane id="H_E_0" index="0" speed="13.89" length="85.60" shape="118.40,192.80 118.40,107.20"/>
    </edge>
    <edge id="H_G" from="H" to="G" priority="-1">
        <lane id="H_G_0" index="0" speed="13.89" length="89.60" shape="112.80,201.60 23.20,201.60"/>
    </edge>
    <edge id="H_I" from="H" to="I" priority="-1">
        <lane id="H_I_0" index="0" speed="13.89" length="89.60" shape="127.20,198.40 216.80,198.40"/>
    </edge>
    <edge id="H_I_parking" from="H_parking" to="H" priority="-1">
        <lane id="H_I_parking_0" index="0" speed="5.00" length="12.80" shape="118.40,220.00 118.40,207.20"/>
    </edge>
    <edge id="I_F" from="I" to="F" priority="-1">
        <lane id="I_F_0" index="0" speed="13.89" length="89.60" shape="218.40,196.80 218.40,107.20"/>
    </edge>
    <edge id="I_H" from="I" to="H" priority="-1">
        <lane id="I_H_0" index="0" speed="13.89" length="89.60" shape="216.80,201.60 127.20,201.60"/>
    </edge>

    <junction id="A" type="priority" x="20.00" y="0.00" incLanes="D_A_0 B_A_0 A_B_parking_0" intLanes=":A_0_0 :A_6_0 :A_2_0 :A_7_0 :A_4_0 :A_5_0" shape="16.80,7.20 23.20,7.20 23.64,4.98 24.20,4.20 24.98,3.64 25.98,3.31 27.20,3.20 27.20,-3.20 12.80,-3.20 12.80,0.00 15.02,0.80 15.80,1.80 16.36,3.20 16.69,5.00">
        <request index="0" response="000000" foes="111000" cont="0"/>
        <request index="1" response="100100" foes="100100" cont="1"/>
        <request index="2" response="000000" foes="100010" cont="0"/>
        <request index="3" response="010001" foes="010001" cont="1"/>
        <request index="4" response="000001" foes="001001" cont="0"/>
        <request index="5" response="000101" foes="000111" cont="0"/>
    </junction>
    <junction id="A_parking" type="dead_end" x="0.00" y="0.00" incLanes="" intLanes="" shape="0.00,0.00 0.00,-3.20"/>
    <junction id="B" type="priority" x="120.00" y="0.00" incLanes="E_B_0 C_B_0 A_B_0" intLanes=":B_0_0 :B_1_0 :B_2_0 :B_3_0 :B_4_0 :B_9_0 :B_6_0 :B_10_0 :B_11_0" shape="116.80,7.20 123.20,7.20 123.64,4.98 124.20,4.20 124.98,3.64 125.98,3.31 127.20,3.20 127.20,-3.20 112.80,-3.20 112.80,3.20 115.02,3.64 115.80,4.20 116.36,4.98 116.69,5.98">
        <request index="0" response="000010000" foes="100010000" cont="0"/>
        <request index="1" response="011010000" foes="011110000" cont="0"/>
        <request index="2" response="010001000" foes="010001000" cont="0"/>
        <request index="3" response="000000000" foes="010000100" cont="0"/>
        <request index="4" response="000000000" foes="110000011" cont="0"/>
        <request index="5" response="001000010" foes="001000010" cont="1"/>
        <request index="6" response="000000000" foes="000100010" cont="0"/>
        <request index="7" response="000011000" foes="000011110" cont="1"/>
        <request index="8" response="000010001" foes="000010001" cont="1"/>
    </junction>
    <junction id="C" type="priority" x="220.00" y="0.00" incLanes="F_C_0 B_C_0" intLanes=":C_0_0 :C_1_0" shape="216.80,3.20 223.20,3.20 222.49,-0.36 221.60,-1.60 220.36,-2.49 218.76,-3.02 216.80,-3.20">
        <request index="0" response="00" foes="00" cont="0"/>
        <request index="1" response="00" foes="00" cont="0"/>
    </junction>
    <junction id="D" type="priority" x="20.00" y="100.00" incLanes="G_D_0 E_D_0 A_D_0 D_G_parking_0" intLanes=":D_0_0 :D_12_0 :D_13_0 :D_3_0 :D_4_0 :D_5_0 :D_6_0 :D_7_0 :D_14_0 :D_9_0 :D_10_0 :D_11_0" shape="16.80,107.20 23.20,107.20 23.64,104.98 24.20,104.20 24.98,103.64 25.98,103.31 27.20,103.20 27.20,96.80 24.98,96.36 24.20,95.80 23.64,95.02 23.31,94.02 23.20,92.80 16.80,92.80 16.36,95.02 15.80,95.80 15.02,96.36 14.02,96.69 12.80,96.80 12.80,100.00 15.02,100.80 15.80,101.80 16.36,103.20 16.69,105.00">
        <request index="0"  response="000000000000" foes="111100010000" cont="0"/>
        <request index="1"  response="000011000000" foes="110011110000" cont="1"/>
        <request index="2"  response="100010001000" foes="100010001000" cont="1"/>
        <request index="3"  response="000010000000" foes="100010000100" cont="0"/>
        <request index="4"  response="011010000011" foes="111110000011" cont="0"/>
        <request index="5"  response="010001000010" foes="010001000010" cont="0"/>
        <request index="6"  response="000000000000" foes="010000100010" cont="0"/>
        <request index="7"  response="000000000000" foes="110000011110" cont="0"/>
        <request index="8"  response="001000010001" foes="001000010001" cont="1"/>
        <request index="9"  response="000000000001" foes="000100010001" cont="0"/>
        <request index="10" response="000011000011" foes="000011110011" cont="0"/>
        <request index="11" response="000010011011" foes="000010011111" cont="0"/>
    </junction>
    <junction id="D_parking" type="dead_end" x="0.00" y="100.00" incLanes="" intLanes="" shape="0.00,100.00 0.00,96.80"/>
    <junction id="E" type="priority" x="120.00" y="100.00" incLanes="H_E_0 F_E_0 B_E_0 D_E_0" intLanes=":E_0_0 :E_1_0 :E_16_0 :E_17_0 :E_4_0 :E_5_0 :E_6_0 :E_7_0 :E_8_0 :E_9_0 :E_18_0 :E_19_0 :E_12_0 :E_13_0 :E_14_0 :E_15_0" shape="116.80,107.20 123.20,107.20 123.64,104.98 124.20,104.20 124.98,103.64 125.98,103.31 127.20,103.20 127.20,96.80 124.98,96.36 124.20,95.80 123.64,95.02 123.31,94.02 123.20,92.80 116.80,92.80 116.36,95.02 115.80,95.80 115.02,96.36 114.02,96.69 112.80,96.80 112.80,103.20 115.02,103.64 115.80,104.20 116.36,104.98 116.69,105.98">
        <request index="0"  response="0000000000000000" foes="1000010000100000" cont="0"/>
        <request index="1"  response="0000000000000000" foes="0111110001100000" cont="0"/>
        <request index="2"  response="0000001100000000" foes="0110011111100000" cont="1"/>
        <request index="3"  response="0100001000010000" foes="0100001000010000" cont="1"/>
        <request index="4"  response="0000001000000000" foes="0100001000001000" cont="0"/>
        <request index="5"  response="0000011000000111" foes="1100011000000111" cont="0"/>
        <request index="6"  response="0011011000000110" foes="0111111000000110" cont="0"/>
        <request index="7"  response="0010000100000100" foes="0010000100000100" cont="0"/>
        <request index="8"  response="0000000000000000" foes="0010000010000100" cont="0"/>
        <request index="9"  response="0000000000000000" foes="0110000001111100" cont="0"/>
        <request index="10" response="0000000000000111" foes="1110000001100111" cont="1"/>
        <request index="11" response="0001000001000010" foes="0001000001000010" cont="1"/>
        <request index="12" response="0000000000000010" foes="0000100001000010" cont="0"/>
        <request index="13" response="0000011100000110" foes="0000011111000110" cont="0"/>
        <request index="14" response="0000011001110110" foes="0000011001111110" cont="0"/>
        <request index="15" response="0000010000100001" foes="0000010000100001" cont="0"/>
    </junction>
    <junction id="F" type="priority" x="220.00" y="100.00" incLanes="I_F_0 C_F_0 E_F_0" intLanes=":F_0_0 :F_1_0 :F_9_0 :F_3_0 :F_10_0 :F_11_0 :F_6_0 :F_7_0 :F_8_0" shape="216.80,107.20 223.20,107.20 223.20,92.80 216.80,92.80 216.36,95.02 215.80,95.80 215.02,96.36 214.02,96.69 212.80,96.80 212.80,103.20 215.02,103.64 215.80,104.20 216.36,104.98 216.69,105.98">
        <request index="0" response="000000000" foes="100010000" cont="0"/>
        <request index="1" response="000000000" foes="011110000" cont="0"/>
        <request index="2" response="010001000" foes="010001000" cont="1"/>
        <request index="3" response="000000000" foes="010000100" cont="0"/>
        <request index="4" response="000000011" foes="110000011" cont="1"/>
        <request index="5" response="001000010" foes="001000010" cont="1"/>
        <request index="6" response="000000010" foes="000100010" cont="0"/>
        <request index="7" response="000011010" foes="000011110" cont="0"/>
        <request index="8" response="000010001" foes="000010001" cont="0"/>
    </junction>
    <junction id="G" type="priority" x="20.00" y="200.00" incLanes="H_G_0 D_G_0" intLanes=":G_0_0 :G_1_0" shape="23.20,203.20 23.20,196.80 16.80,196.80 17.51,200.36 18.40,201.60 19.64,202.49 21.24,203.02">
        <request index="0" response="00" foes="00" cont="0"/>
        <request index="1" response="00" foes="00" cont="0"/>
    </junction>
    <junction id="H" type="priority" x="120.00" y="200.00" incLanes="H_I_parking_0 I_H_0 E_H_0 G_H_0" intLanes=":H_0_0 :H_1_0 :H_2_0 :H_3_0 :H_12_0 :H_13_0 :H_6_0 :H_7_0 :H_8_0 :H_9_0 :H_10_0 :H_14_0" shape="116.80,207.20 120.00,207.20 120.80,204.98 121.80,204.20 123.20,203.64 125.00,203.31 127.20,203.20 127.20,196.80 124.98,196.36 124.20,195.80 123.64,195.02 123.31,194.02 123.20,192.80 116.80,192.80 116.36,195.02 115.80,195.80 115.02,196.36 114.02,196.69 112.80,196.80 112.80,203.20 115.02,203.64 115.80,204.20 116.36,204.98 116.69,205.98">
        <request index="0"  response="000000001000" foes="100010001000" cont="0"/>
        <request index="1"  response="011000011000" foes="011110011000" cont="0"/>
        <request index="2"  response="010001011000" foes="010011111000" cont="0"/>
        <request index="3"  response="000000000000" foes="100010000111" cont="0"/>
        <request index="4"  response="011000000000" foes="011110000110" cont="1"/>
        <request index="5"  response="010001000100" foes="010001000100" cont="1"/>
        <request index="6"  response="010000000000" foes="010000100100" cont="0"/>
        <request index="7"  response="010000011111" foes="110000011111" cont="0"/>
        <request index="8"  response="001000010010" foes="001000010010" cont="0"/>
        <request index="9"  response="000000000000" foes="000100010010" cont="0"/>
        <request index="10" response="000000000000" foes="000011110110" cont="0"/>
        <request index="11" response="000010001001" foes="000010001001" cont="1"/>
    </junction>
    <junction id="H_parking" type="dead_end" x="120.00" y="220.00" incLanes="" intLanes="" shape="120.00,220.00 116.80,220.00"/>
    <junction id="I" type="priority" x="220.00" y="200.00" incLanes="F_I_0 H_I_0" intLanes=":I_0_0 :I_1_0" shape="223.20,196.80 216.80,196.80 216.80,203.20 220.36,202.49 221.60,201.60 222.49,200.36 223.02,198.76">
        <request index="0" response="00" foes="00" cont="0"/>
        <request index="1" response="00" foes="00" cont="0"/>
    </junction>

    <junction id=":A_6_0" type="internal" x="19.20" y="6.00" incLanes=":A_1_0 A_B_parking_0 B_A_0" intLanes=":A_2_0 :A_5_0"/>
    <junction id=":A_7_0" type="internal" x="26.12" y="0.88" incLanes=":A_3_0 A_B_parking_0 D_A_0" intLanes=":A_0_0 :A_4_0"/>
    <junction id=":B_9_0" type="internal" x="126.00" y="0.80" incLanes=":B_5_0 A_B_0 E_B_0" intLanes=":B_1_0 :B_6_0"/>
    <junction id=":B_10_0" type="internal" x="116.80" y="-0.96" incLanes=":B_7_0 C_B_0" intLanes=":B_1_0 :B_2_0 :B_3_0 :B_4_0"/>
    <junction id=":B_11_0" type="internal" x="114.00" y="-0.80" incLanes=":B_8_0 C_B_0 E_B_0" intLanes=":B_0_0 :B_4_0"/>
    <junction id=":D_12_0" type="internal" x="19.04" y="103.20" incLanes=":D_1_0 A_D_0" intLanes=":D_4_0 :D_5_0 :D_6_0 :D_7_0 :D_10_0 :D_11_0"/>
    <junction id=":D_13_0" type="internal" x="19.20" y="106.00" incLanes=":D_2_0 A_D_0 D_G_parking_0 E_D_0" intLanes=":D_3_0 :D_7_0 :D_11_0"/>
    <junction id=":D_14_0" type="internal" x="20.80" y="94.00" incLanes=":D_8_0 D_G_parking_0 E_D_0 G_D_0" intLanes=":D_0_0 :D_4_0 :D_9_0"/>
    <junction id=":E_16_0" type="internal" x="119.04" y="103.20" incLanes=":E_2_0 B_E_0" intLanes=":E_5_0 :E_6_0 :E_7_0 :E_8_0 :E_9_0 :E_13_0 :E_14_0"/>
    <junction id=":E_17_0" type="internal" x="119.20" y="106.00" incLanes=":E_3_0 B_E_0 D_E_0 F_E_0" intLanes=":E_4_0 :E_9_0 :E_14_0"/>
    <junction id=":E_18_0" type="internal" x="120.96" y="96.80" incLanes=":E_10_0 H_E_0" intLanes=":E_0_0 :E_1_0 :E_5_0 :E_6_0 :E_13_0 :E_14_0 :E_15_0"/>
    <junction id=":E_19_0" type="internal" x="120.80" y="94.00" incLanes=":E_11_0 D_E_0 F_E_0 H_E_0" intLanes=":E_1_0 :E_6_0 :E_12_0"/>
    <junction id=":F_9_0" type="internal" x="219.20" y="106.00" incLanes=":F_2_0 C_F_0 E_F_0" intLanes=":F_3_0 :F_7_0"/>
    <junction id=":F_10_0" type="internal" x="220.96" y="96.80" incLanes=":F_4_0 I_F_0" intLanes=":F_0_0 :F_1_0 :F_7_0 :F_8_0"/>
    <junction id=":F_11_0" type="internal" x="220.80" y="94.00" incLanes=":F_5_0 E_F_0 I_F_0" intLanes=":F_1_0 :F_6_0"/>
    <junction id=":H_12_0" type="internal" x="123.20" y="200.96" incLanes=":H_4_0 G_H_0" intLanes=":H_1_0 :H_2_0 :H_7_0 :H_8_0 :H_9_0 :H_10_0"/>
    <junction id=":H_13_0" type="internal" x="126.00" y="200.80" incLanes=":H_5_0 E_H_0 G_H_0 H_I_parking_0" intLanes=":H_2_0 :H_6_0 :H_10_0"/>
    <junction id=":H_14_0" type="internal" x="114.00" y="199.20" incLanes=":H_11_0 E_H_0 H_I_parking_0 I_H_0" intLanes=":H_0_0 :H_3_0 :H_7_0"/>

    <connection from="A_B" to="B_C" fromLane="0" toLane="0" via=":B_6_0" dir="s" state="M"/>
    <connection from="A_B" to="B_E" fromLane="0" toLane="0" via=":B_7_0" dir="l" state="m"/>
    <connection from="A_B" to="B_A" fromLane="0" toLane="0" via=":B_8_0" dir="t" state="m"/>
    <connection from="A_B_parking" to="A_B" fromLane="0" toLane="0" via=":A_4_0" dir="s" state="m"/>
    <connection from="A_B_parking" to="A_D" fromLane="0" toLane="0" via=":A_5_0" dir="l" state="m"/>
    <connection from="A_D" to="D_E" fromLane="0" toLane="0" via=":D_6_0" dir="r" state="M"/>
    <connection from="A_D" to="D_G" fromLane="0" toLane="0" via=":D_7_0" dir="s" state="M"/>
    <connection from="A_D" to="D_A" fromLane="0" toLane="0" via=":D_8_0" dir="t" state="m"/>
    <connection from="B_A" to="A_D" fromLane="0" toLane="0" via=":A_2_0" dir="r" state="M"/>
    <connection from="B_A" to="A_B" fromLane="0" toLane="0" via=":A_3_0" dir="t" state="m"/>
    <connection from="B_C" to="C_F" fromLane="0" toLane="0" via=":C_1_0" dir="l" state="M"/>
    <connection from="B_E" to="E_F" fromLane="0" toLane="0" via=":E_8_0" dir="r" state="M"/>
    <connection from="B_E" to="E_H" fromLane="0" toLane="0" via=":E_9_0" dir="s" state="M"/>
    <connection from="B_E" to="E_D" fromLane="0" toLane="0" via=":E_10_0" dir="l" state="m"/>
    <connection from="B_E" to="E_B" fromLane="0" toLane="0" via=":E_11_0" dir="t" state="m"/>
    <connection from="C_B" to="B_E" fromLane="0" toLane="0" via=":B_3_0" dir="r" state="M"/>
    <connection from="C_B" to="B_A" fromLane="0" toLane="0" via=":B_4_0" dir="s" state="M"/>
    <connection from="C_B" to="B_C" fromLane="0" toLane="0" via=":B_5_0" dir="t" state="m"/>
    <connection from="C_F" to="F_I" fromLane="0" toLane="0" via=":F_3_0" dir="s" state="M"/>
    <connection from="C_F" to="F_E" fromLane="0" toLane="0" via=":F_4_0" dir="l" state="m"/>
    <connection from="C_F" to="F_C" fromLane="0" toLane="0" via=":F_5_0" dir="t" state="m"/>
    <connection from="D_A" to="A_B" fromLane="0" toLane="0" via=":A_0_0" dir="l" state="M"/>
    <connection from="D_A" to="A_D" fromLane="0" toLane="0" via=":A_1_0" dir="t" state="m"/>
    <connection from="D_E" to="E_B" fromLane="0" toLane="0" via=":E_12_0" dir="r" state="m"/>
    <connection from="D_E" to="E_F" fromLane="0" toLane="0" via=":E_13_0" dir="s" state="m"/>
    <connection from="D_E" to="E_H" fromLane="0" toLane="0" via=":E_14_0" dir="l" state="m"/>
    <connection from="D_E" to="E_D" fromLane="0" toLane="0" via=":E_15_0" dir="t" state="m"/>
    <connection from="D_G" to="G_H" fromLane="0" toLane="0" via=":G_1_0" dir="r" state="M"/>
    <connection from="D_G_parking" to="D_A" fromLane="0" toLane="0" via=":D_9_0" dir="r" state="m"/>
    <connection from="D_G_parking" to="D_E" fromLane="0" toLane="0" via=":D_10_0" dir="s" state="m"/>
    <connection from="D_G_parking" to="D_G" fromLane="0" toLane="0" via=":D_11_0" dir="l" state="m"/>
    <connection from="E_B" to="B_A" fromLane="0" toLane="0" via=":B_0_0" dir="r" state="m"/>
    <connection from="E_B" to="B_C" fromLane="0" toLane="0" via=":B_1_0" dir="l" state="m"/>
    <connection from="E_B" to="B_E" fromLane="0" toLane="0" via=":B_2_0" dir="t" state="m"/>
    <connection from="E_D" to="D_G" fromLane="0" toLane="0" via=":D_3_0" dir="r" state="m"/>
    <connection from="E_D" to="D_A" fromLane="0" toLane="0" via=":D_4_0" dir="l" state="m"/>
    <connection from="E_D" to="D_E" fromLane="0" toLane="0" via=":D_5_0" dir="t" state="m"/>
    <connection from="E_F" to="F_C" fromLane="0" toLane="0" via=":F_6_0" dir="r" state="m"/>
    <connection from="E_F" to="F_I" fromLane="0" toLane="0" via=":F_7_0" dir="l" state="m"/>
    <connection from="E_F" to="F_E" fromLane="0" toLane="0" via=":F_8_0" dir="t" state="m"/>
    <connection from="E_H" to="H_I" fromLane="0" toLane="0" via=":H_6_0" dir="r" state="m"/>
    <connection from="E_H" to="H_G" fromLane="0" toLane="0" via=":H_7_0" dir="l" state="m"/>
    <connection from="E_H" to="H_E" fromLane="0" toLane="0" via=":H_8_0" dir="t" state="m"/>
    <connection from="F_C" to="C_B" fromLane="0" toLane="0" via=":C_0_0" dir="r" state="M"/>
    <connection from="F_E" to="E_H" fromLane="0" toLane="0" via=":E_4_0" dir="r" state="m"/>
    <connection from="F_E" to="E_D" fromLane="0" toLane="0" via=":E_5_0" dir="s" state="m"/>
    <connection from="F_E" to="E_B" fromLane="0" toLane="0" via=":E_6_0" dir="l" state="m"/>
    <connection from="F_E" to="E_F" fromLane="0" toLane="0" via=":E_7_0" dir="t" state="m"/>
    <connection from="F_I" to="I_H" fromLane="0" toLane="0" via=":I_0_0" dir="l" state="M"/>
    <connection from="G_D" to="D_A" fromLane="0" toLane="0" via=":D_0_0" dir="s" state="M"/>
    <connection from="G_D" to="D_E" fromLane="0" toLane="0" via=":D_1_0" dir="l" state="m"/>
    <connection from="G_D" to="D_G" fromLane="0" toLane="0" via=":D_2_0" dir="t" state="m"/>
    <connection from="G_H" to="H_E" fromLane="0" toLane="0" via=":H_9_0" dir="r" state="M"/>
    <connection from="G_H" to="H_I" fromLane="0" toLane="0" via=":H_10_0" dir="s" state="M"/>
    <connection from="G_H" to="H_G" fromLane="0" toLane="0" via=":H_11_0" dir="t" state="m"/>
    <connection from="H_E" to="E_D" fromLane="0" toLane="0" via=":E_0_0" dir="r" state="M"/>
    <connection from="H_E" to="E_B" fromLane="0" toLane="0" via=":E_1_0" dir="s" state="M"/>
    <connection from="H_E" to="E_F" fromLane="0" toLane="0" via=":E_2_0" dir="l" state="m"/>
    <connection from="H_E" to="E_H" fromLane="0" toLane="0" via=":E_3_0" dir="t" state="m"/>
    <connection from="H_G" to="G_D" fromLane="0" toLane="0" via=":G_0_0" dir="l" state="M"/>
    <connection from="H_I" to="I_F" fromLane="0" toLane="0" via=":I_1_0" dir="r" state="M"/>
    <connection from="H_I_parking" to="H_G" fromLane="0" toLane="0" via=":H_0_0" dir="r" state="m"/>
    <connection from="H_I_parking" to="H_E" fromLane="0" toLane="0" via=":H_1_0" dir="s" state="m"/>
    <connection from="H_I_parking" to="H_I" fromLane="0" toLane="0" via=":H_2_0" dir="l" state="m"/>
    <connection from="I_F" to="F_E" fromLane="0" toLane="0" via=":F_0_0" dir="r" state="M"/>
    <connection from="I_F" to="F_C" fromLane="0" toLane="0" via=":F_1_0" dir="s" state="M"/>
    <connection from="I_F" to="F_I" fromLane="0" toLane="0" via=":F_2_0" dir="t" state="m"/>
    <connection from="I_H" to="H_G" fromLane="0" toLane="0" via=":H_3_0" dir="s" state="M"/>
    <connection from="I_H" to="H_E" fromLane="0" toLane="0" via=":H_4_0" dir="l" state="m"/>
    <connection from="I_H" to="H_I" fromLane="0" toLane="0" via=":H_5_0" dir="t" state="m"/>

    <connection from=":A_0" to="A_B" fromLane="0" toLane="0" dir="l" state="M"/>
    <connection from=":A_1" to="A_D" fromLane="0" toLane="0" via=":A_6_0" dir="t" state="m"/>
    <connection from=":A_6" to="A_D" fromLane="0" toLane="0" dir="t" state="M"/>
    <connection from=":A_2" to="A_D" fromLane="0" toLane="0" dir="r" state="M"/>
    <connection from=":A_3" to="A_B" fromLane="0" toLane="0" via=":A_7_0" dir="t" state="m"/>
    <connection from=":A_7" to="A_B" fromLane="0" toLane="0" dir="t" state="M"/>
    <connection from=":A_4" to="A_B" fromLane="0" toLane="0" dir="s" state="M"/>
    <connection from=":A_5" to="A_D" fromLane="0" toLane="0" dir="l" state="M"/>
    <connection from=":B_0" to="B_A" fromLane="0" toLane="0" dir="r" state="M"/>
    <connection from=":B_1" to="B_C" fromLane="0" toLane="0" dir="l" state="M"/>
    <connection from=":B_2" to="B_E" fromLane="0" toLane="0" dir="t" state="M"/>
    <connection from=":B_3" to="B_E" fromLane="0" toLane="0" dir="r" state="M"/>
    <connection from=":B_4" to="B_A" fromLane="0" toLane="0" dir="s" state="M"/>
    <connection from=":B_5" to="B_C" fromLane="0" toLane="0" via=":B_9_0" dir="t" state="m"/>
    <connection from=":B_9" to="B_C" fromLane="0" toLane="0" dir="t" state="M"/>
    <connection from=":B_6" to="B_C" fromLane="0" toLane="0" dir="s" state="M"/>
    <connection from=":B_7" to="B_E" fromLane="0" toLane="0" via=":B_10_0" dir="l" state="m"/>
    <connection from=":B_10" to="B_E" fromLane="0" toLane="0" dir="l" state="M"/>
    <connection from=":B_8" to="B_A" fromLane="0" toLane="0" via=":B_11_0" dir="t" state="m"/>
    <connection from=":B_11" to="B_A" fromLane="0" toLane="0" dir="t" state="M"/>
    <connection from=":C_0" to="C_B" fromLane="0" toLane="0" dir="r" state="M"/>
    <connection from=":C_1" to="C_F" fromLane="0" toLane="0" dir="l" state="M"/>
    <connection from=":D_0" to="D_A" fromLane="0" toLane="0" dir="s" state="M"/>
    <connection from=":D_1" to="D_E" fromLane="0" toLane="0" via=":D_12_0" dir="l" state="m"/>
    <connection from=":D_12" to="D_E" fromLane="0" toLane="0" dir="l" state="M"/>
    <connection from=":D_2" to="D_G" fromLane="0" toLane="0" via=":D_13_0" dir="t" state="m"/>
    <connection from=":D_13" to="D_G" fromLane="0" toLane="0" dir="t" state="M"/>
    <connection from=":D_3" to="D_G" fromLane="0" toLane="0" dir="r" state="M"/>
    <connection from=":D_4" to="D_A" fromLane="0" toLane="0" dir="l" state="M"/>
    <connection from=":D_5" to="D_E" fromLane="0" toLane="0" dir="t" state="M"/>
    <connection from=":D_6" to="D_E" fromLane="0" toLane="0" dir="r" state="M"/>
    <connection from=":D_7" to="D_G" fromLane="0" toLane="0" dir="s" state="M"/>
    <connection from=":D_8" to="D_A" fromLane="0" toLane="0" via=":D_14_0" dir="t" state="m"/>
    <connection from=":D_14" to="D_A" fromLane="0" toLane="0" dir="t" state="M"/>
    <connection from=":D_9" to="D_A" fromLane="0" toLane="0" dir="r" state="M"/>
    <connection from=":D_10" to="D_E" fromLane="0" toLane="0" dir="s" state="M"/>
    <connection from=":D_11" to="D_G" fromLane="0" toLane="0" dir="l" state="M"/>
    <connection from=":E_0" to="E_D" fromLane="0" toLane="0" dir="r" state="M"/>
    <connection from=":E_1" to="E_B" fromLane="0" toLane="0" dir="s" state="M"/>
    <connection from=":E_2" to="E_F" fromLane="0" toLane="0" via=":E_16_0" dir="l" state="m"/>
    <connection from=":E_16" to="E_F" fromLane="0" toLane="0" dir="l" state="M"/>
    <connection from=":E_3" to="E_H" fromLane="0" toLane="0" via=":E_17_0" dir="t" state="m"/>
    <connection from=":E_17" to="E_H" fromLane="0" toLane="0" dir="t" state="M"/>
    <connection from=":E_4" to="E_H" fromLane="0" toLane="0" dir="r" state="M"/>
    <connection from=":E_5" to="E_D" fromLane="0" toLane="0" dir="s" state="M"/>
    <connection from=":E_6" to="E_B" fromLane="0" toLane="0" dir="l" state="M"/>
    <connection from=":E_7" to="E_F" fromLane="0" toLane="0" dir="t" state="M"/>
    <connection from=":E_8" to="E_F" fromLane="0" toLane="0" dir="r" state="M"/>
    <connection from=":E_9" to="E_H" fromLane="0" toLane="0" dir="s" state="M"/>
    <connection from=":E_10" to="E_D" fromLane="0" toLane="0" via=":E_18_0" dir="l" state="m"/>
    <connection from=":E_18" to="E_D" fromLane="0" toLane="0" dir="l" state="M"/>
    <connection from=":E_11" to="E_B" fromLane="0" toLane="0" via=":E_19_0" dir="t" state="m"/>
    <connection from=":E_19" to="E_B" fromLane="0" toLane="0" dir="t" state="M"/>
    <connection from=":E_12" to="E_B" fromLane="0" toLane="0" dir="r" state="M"/>
    <connection from=":E_13" to="E_F" fromLane="0" toLane="0" dir="s" state="M"/>
    <connection from=":E_14" to="E_H" fromLane="0" toLane="0" dir="l" state="M"/>
    <connection from=":E_15" to="E_D" fromLane="0" toLane="0" dir="t" state="M"/>
    <connection from=":F_0" to="F_E" fromLane="0" toLane="0" dir="r" state="M"/>
    <connection from=":F_1" to="F_C" fromLane="0" toLane="0" dir="s" state="M"/>
    <connection from=":F_2" to="F_I" fromLane="0" toLane="0" via=":F_9_0" dir="t" state="m"/>
    <connection from=":F_9" to="F_I" fromLane="0" toLane="0" dir="t" state="M"/>
    <connection from=":F_3" to="F_I" fromLane="0" toLane="0" dir="s" state="M"/>
    <connection from=":F_4" to="F_E" fromLane="0" toLane="0" via=":F_10_0" dir="l" state="m"/>
    <connection from=":F_10" to="F_E" fromLane="0" toLane="0" dir="l" state="M"/>
    <connection from=":F_5" to="F_C" fromLane="0" toLane="0" via=":F_11_0" dir="t" state="m"/>
    <connection from=":F_11" to="F_C" fromLane="0" toLane="0" dir="t" state="M"/>
    <connection from=":F_6" to="F_C" fromLane="0" toLane="0" dir="r" state="M"/>
    <connection from=":F_7" to="F_I" fromLane="0" toLane="0" dir="l" state="M"/>
    <connection from=":F_8" to="F_E" fromLane="0" toLane="0" dir="t" state="M"/>
    <connection from=":G_0" to="G_D" fromLane="0" toLane="0" dir="l" state="M"/>
    <connection from=":G_1" to="G_H" fromLane="0" toLane="0" dir="r" state="M"/>
    <connection from=":H_0" to="H_G" fromLane="0" toLane="0" dir="r" state="M"/>
    <connection from=":H_1" to="H_E" fromLane="0" toLane="0" dir="s" state="M"/>
    <connection from=":H_2" to="H_I" fromLane="0" toLane="0" dir="l" state="M"/>
    <connection from=":H_3" to="H_G" fromLane="0" toLane="0" dir="s" state="M"/>
    <connection from=":H_4" to="H_E" fromLane="0" toLane="0" via=":H_12_0" dir="l" state="m"/>
    <connection from=":H_12" to="H_E" fromLane="0" toLane="0" dir="l" state="M"/>
    <connection from=":H_5" to="H_I" fromLane="0" toLane="0" via=":H_13_0" dir="t" state="m"/>
    <connection from=":H_13" to="H_I" fromLane="0" toLane="0" dir="t" state="M"/>
    <connection from=":H_6" to="H_I" fromLane="0" toLane="0" dir="r" state="M"/>
    <connection from=":H_7" to="H_G" fromLane="0" toLane="0" dir="l" state="M"/>
    <connection from=":H_8" to="H_E" fromLane="0" toLane="0" dir="t" state="M"/>
    <connection from=":H_9" to="H_E" fromLane="0" toLane="0" dir="r" state="M"/>
    <connection from=":H_10" to="H_I" fromLane="0" toLane="0" dir="s" state="M"/>
    <connection from=":H_11" to="H_G" fromLane="0" toLane="0" via=":H_14_0" dir="t" state="m"/>
    <connection from=":H_14" to="H_G" fromLane="0" toLane="0" dir="t" state="M"/>
    <connection from=":I_0" to="I_H" fromLane="0" toLane="0" dir="l" state="M"/>
    <connection from=":I_1" to="I_F" fromLane="0" toLane="0" dir="r" state="M"/>

</net>
